16

C        0.971771    0.891992    0.331675
H        1.751319    1.607597    0.597981
C       -0.171066    1.143910   -0.715642
H       -0.308195    2.061588   -1.289876
C        1.219679   -0.532602   -0.281012
H        2.198034   -0.959893   -0.506708
C       -0.076781    0.280861    1.328242
H       -0.138252    0.506176    2.394154
C        0.076780   -0.280863   -1.328242
H        0.138275   -0.506175   -2.394154
C       -1.219669    0.532598    0.281015
H       -2.198031    0.959876    0.506714
C        0.171050   -1.143913    0.715642
H        0.308185   -2.061593    1.289873
C       -0.971766   -0.891982   -0.331679
H       -1.751323   -1.607581   -0.597978
