10

H          2.2652475842          0.0000000000          0.0000000000
H          1.8326237921          1.3314791228          0.0000000000
H          0.7000000000          2.1543784760          0.0000000000
H         -0.7000000000          2.1543784760          0.0000000000
H         -1.8326237921          1.3314791228          0.0000000000
H         -2.2652475842          0.0000000000          0.0000000000
H         -1.8326237921         -1.3314791228          0.0000000000
H         -0.7000000000         -2.1543784760          0.0000000000
H          0.7000000000         -2.1543784760          0.0000000000
H          1.8326237921         -1.3314791228          0.0000000000
