10

H          1.2944271910          0.0000000000          0.0000000000
H          1.0472135955          0.7608452130          0.0000000000
H          0.4000000000          1.2310734149          0.0000000000
H         -0.4000000000          1.2310734149          0.0000000000
H         -1.0472135955          0.7608452130          0.0000000000
H         -1.2944271910          0.0000000000          0.0000000000
H         -1.0472135955         -0.7608452130          0.0000000000
H         -0.4000000000         -1.2310734149          0.0000000000
H          0.4000000000         -1.2310734149          0.0000000000
H          1.0472135955         -0.7608452130          0.0000000000
