10

H          1.1326237921          0.0000000000          0.0000000000
H          0.9163118961          0.6657395614          0.0000000000
H          0.3500000000          1.0771892380          0.0000000000
H         -0.3500000000          1.0771892380          0.0000000000
H         -0.9163118961          0.6657395614          0.0000000000
H         -1.1326237921          0.0000000000          0.0000000000
H         -0.9163118961         -0.6657395614          0.0000000000
H         -0.3500000000         -1.0771892380          0.0000000000
H          0.3500000000         -1.0771892380          0.0000000000
H          0.9163118961         -0.6657395614          0.0000000000
