10

H          3.8832815730          0.0000000000          0.0000000000
H          3.1416407865          2.2825356391          0.0000000000
H          1.2000000000          3.6932202446          0.0000000000
H         -1.2000000000          3.6932202446          0.0000000000
H         -3.1416407865          2.2825356391          0.0000000000
H         -3.8832815730          0.0000000000          0.0000000000
H         -3.1416407865         -2.2825356391          0.0000000000
H         -1.2000000000         -3.6932202446          0.0000000000
H          1.2000000000         -3.6932202446          0.0000000000
H          3.1416407865         -2.2825356391          0.0000000000
