10

H          2.9124611797          0.0000000000          0.0000000000
H          2.3562305899          1.7119017293          0.0000000000
H          0.9000000000          2.7699151835          0.0000000000
H         -0.9000000000          2.7699151835          0.0000000000
H         -2.3562305899          1.7119017293          0.0000000000
H         -2.9124611797          0.0000000000          0.0000000000
H         -2.3562305899         -1.7119017293          0.0000000000
H         -0.9000000000         -2.7699151835          0.0000000000
H          0.9000000000         -2.7699151835          0.0000000000
H          2.3562305899         -1.7119017293          0.0000000000
