10

H          3.2360679775          0.0000000000          0.0000000000
H          2.6180339887          1.9021130326          0.0000000000
H          1.0000000000          3.0776835372          0.0000000000
H         -1.0000000000          3.0776835372          0.0000000000
H         -2.6180339887          1.9021130326          0.0000000000
H         -3.2360679775          0.0000000000          0.0000000000
H         -2.6180339887         -1.9021130326          0.0000000000
H         -1.0000000000         -3.0776835372          0.0000000000
H          1.0000000000         -3.0776835372          0.0000000000
H          2.6180339887         -1.9021130326          0.0000000000
