10

H          3.7214781741          0.0000000000          0.0000000000
H          3.0107390871          2.1874299875          0.0000000000
H          1.1500000000          3.5393360678          0.0000000000
H         -1.1500000000          3.5393360678          0.0000000000
H         -3.0107390871          2.1874299875          0.0000000000
H         -3.7214781741          0.0000000000          0.0000000000
H         -3.0107390871         -2.1874299875          0.0000000000
H         -1.1500000000         -3.5393360678          0.0000000000
H          1.1500000000         -3.5393360678          0.0000000000
H          3.0107390871         -2.1874299875          0.0000000000
