10

H          1.4562305899          0.0000000000          0.0000000000
H          1.1781152949          0.8559508647          0.0000000000
H          0.4500000000          1.3849575917          0.0000000000
H         -0.4500000000          1.3849575917          0.0000000000
H         -1.1781152949          0.8559508647          0.0000000000
H         -1.4562305899          0.0000000000          0.0000000000
H         -1.1781152949         -0.8559508647          0.0000000000
H         -0.4500000000         -1.3849575917          0.0000000000
H          0.4500000000         -1.3849575917          0.0000000000
H          1.1781152949         -0.8559508647          0.0000000000
