10

H          4.0450849719          0.0000000000          0.0000000000
H          3.2725424859          2.3776412907          0.0000000000
H          1.2500000000          3.8471044215          0.0000000000
H         -1.2500000000          3.8471044215          0.0000000000
H         -3.2725424859          2.3776412907          0.0000000000
H         -4.0450849719          0.0000000000          0.0000000000
H         -3.2725424859         -2.3776412907          0.0000000000
H         -1.2500000000         -3.8471044215          0.0000000000
H          1.2500000000         -3.8471044215          0.0000000000
H          3.2725424859         -2.3776412907          0.0000000000
