10

H          3.3978713764          0.0000000000          0.0000000000
H          2.7489356882          1.9972186842          0.0000000000
H          1.0500000000          3.2315677140          0.0000000000
H         -1.0500000000          3.2315677140          0.0000000000
H         -2.7489356882          1.9972186842          0.0000000000
H         -3.3978713764          0.0000000000          0.0000000000
H         -2.7489356882         -1.9972186842          0.0000000000
H         -1.0500000000         -3.2315677140          0.0000000000
H          1.0500000000         -3.2315677140          0.0000000000
H          2.7489356882         -1.9972186842          0.0000000000
