12

C       -0.779069    0.812384   -0.334875
H       -1.513521    1.549153   -0.638932
C       -0.779000   -0.696246   -0.536005
H       -1.513519   -1.327946   -1.021958
C       -0.779055   -0.116090    0.870880
H       -1.513553   -0.221553    1.660871
C        0.779033    0.812221   -0.335269
H        1.513544    1.548876   -0.639457
C        0.779051   -0.696501   -0.535677
H        1.513486   -1.328469   -1.021412
C        0.779039   -0.115700    0.870931
H        1.513564   -0.220471    1.660987
