8

C               -0.580517    0.479710   -0.503842
H               -1.269514    1.045226   -1.098983
C               -0.462763   -0.528766    0.571790
H               -1.009781   -1.152554    1.250252
C                0.529158    0.565261    0.470571
H                1.157329    1.232467    1.026343
C                0.514143   -0.516046   -0.538653
H                1.121845   -1.126087   -1.176808
